125

Ga	 2.9149396419525146	 6.096879482269287	 21.839128494262695
Ga	 1.9157646894454956	 2.033602237701416	 26.8284854888916
Ga	 -0.5053228139877319	 2.891447067260742	 17.200637817382812
Ga	 0.40455687046051025	 7.265858173370361	 23.549650192260742
Ga	 5.182188987731934	 3.1866254806518555	 28.484601974487305
Ga	 2.776348114013672	 4.062065124511719	 18.879127502441406
Ga	 4.098055839538574	 4.604480743408203	 25.10203742980957
Ga	 1.6596815586090088	 5.447322368621826	 15.471259117126465
Ga	 0.7476170063018799	 1.3977642059326172	 20.46503257751465
Ga	 1.2740830183029175	 3.6025543212890625	 23.670320510864258
Ga	 4.040293216705322	 6.827663898468018	 28.322649002075195
Ga	 3.8151214122772217	 0.46172481775283813	 18.991668701171875
Ga	 0.841809093952179	 13.375044822692871	 21.54490089416504
Ga	 0.7200149297714233	 9.298810005187988	 26.505868911743164
Ga	 -2.850080728530884	 10.15908145904541	 16.903644561767578
Ga	 -2.433079242706299	 14.562536239624023	 23.27678680419922
Ga	 3.0194098949432373	 10.495610237121582	 28.22079849243164
Ga	 0.6375055313110352	 11.339502334594727	 18.587261199951172
Ga	 1.9029728174209595	 11.88129711151123	 24.812192916870117
Ga	 -0.5766493678092957	 12.720992088317871	 15.177732467651367
Ga	 -1.4584283828735352	 8.675604820251465	 20.163230895996094
Ga	 -1.1455999612808228	 10.892910957336426	 23.387903213500977
Ga	 1.9982852935791016	 14.097137451171875	 28.020051956176758
Ga	 1.6098905801773071	 7.67856502532959	 18.702909469604492
Ga	 9.496475219726562	 6.049876689910889	 21.757219314575195
Ga	 8.490426063537598	 1.9815311431884766	 26.765745162963867
Ga	 6.096650123596191	 2.8708958625793457	 17.12908935546875
Ga	 6.176620006561279	 7.241437911987305	 23.50645637512207
Ga	 11.759159088134766	 3.136474132537842	 28.441696166992188
Ga	 9.382997512817383	 4.043601036071777	 18.801437377929688
Ga	 10.664198875427246	 4.54583740234375	 25.03774642944336
Ga	 8.266331672668457	 5.428857326507568	 15.393570899963379
Ga	 7.2799296379089355	 1.3784791231155396	 20.390012741088867
Ga	 7.19653844833374	 3.5732786655426025	 23.61786651611328
Ga	 10.594038963317871	 6.755524158477783	 28.26845359802246
Ga	 10.411622047424316	 0.3832849860191345	 18.915063858032227
Ga	 7.326506614685059	 13.355232238769531	 21.47159194946289
Ga	 6.308020114898682	 9.268226623535156	 26.464780807495117
Ga	 3.9015679359436035	 10.147714614868164	 16.839244842529297
Ga	 3.9965529441833496	 14.53687572479248	 23.214866638183594
Ga	 9.581463813781738	 10.426151275634766	 28.13286590576172
Ga	 7.187915325164795	 11.320417404174805	 18.51158905029297
Ga	 8.509622573852539	 11.862833023071289	 24.734500885009766
Ga	 6.0712480545043945	 12.70567512512207	 15.10372543334961
Ga	 5.084847927093506	 8.655296325683594	 20.100168228149414
Ga	 5.034786701202393	 10.886201858520508	 23.3366641998291
Ga	 8.443000793457031	 14.077154159545898	 27.95001792907715
Ga	 8.21653938293457	 7.660100936889648	 18.625219345092773
S	 3.0122804641723633	 0.8173946738243103	 25.761140823364258
S	 0.4938562512397766	 1.1882632970809937	 16.140840530395508
S	 3.9189062118530273	 4.395848751068115	 20.77058219909668
S	 3.942455768585205	 6.637126922607422	 23.895368576049805
S	 3.699643135070801	 0.20352821052074432	 14.549237251281738
S	 0.5174283981323242	 3.4295942783355713	 19.264476776123047
S	 1.8708957433700562	 4.040582656860352	 25.72216033935547
S	 -0.7127796411514282	 4.942406177520752	 16.03238296508789
S	 5.0251007080078125	 0.8752773404121399	 20.955318450927734
S	 0.8642838001251221	 5.542758941650391	 22.34895896911621
S	 0.6947001218795776	 1.7107363939285278	 27.37771224975586
S	 3.832888603210449	 2.3400397300720215	 17.625505447387695
S	 5.110755443572998	 2.8928380012512207	 24.062158584594727
S	 2.689915180206299	 3.7545981407165527	 14.413043022155762
S	 -0.467121422290802	 6.981023788452148	 19.11748504638672
S	 -0.6235934495925903	 5.0874433517456055	 27.275039672851562
S	 2.754429340362549	 5.984516143798828	 17.4892635345459
S	 1.7679808139801025	 1.9339218139648438	 22.48651695251465
S	 1.2324825525283813	 7.572355270385742	 25.517492294311523
S	 -1.8798798322677612	 8.45633602142334	 15.846113204956055
S	 1.7238236665725708	 11.672664642333984	 20.480737686157227
S	 1.7473727464675903	 13.913942337036133	 23.60552215576172
S	 1.5045596361160278	 7.480343818664551	 14.259390830993652
S	 -1.7087138891220093	 10.699708938598633	 18.964595794677734
S	 0.19091393053531647	 11.355091094970703	 25.377290725708008
S	 -3.0145883560180664	 12.206086158752441	 15.735084533691406
S	 2.830017566680908	 8.152093887329102	 20.665475845336914
S	 -1.4157112836837769	 12.838909149169922	 22.02813148498535
S	 -1.7665599584579468	 8.716018676757812	 27.09664535522461
S	 1.6378055810928345	 9.616856575012207	 17.335660934448242
S	 2.933034896850586	 10.188469886779785	 23.754493713378906
S	 0.5305561423301697	 11.028125762939453	 14.122943878173828
S	 -2.7689316272735596	 14.244704246520996	 18.820186614990234
S	 -3.430623769760132	 12.431023597717285	 26.87714195251465
S	 0.588516116142273	 13.258646965026855	 17.199209213256836
S	 -0.07598994672298431	 9.190047264099121	 22.201120376586914
S	 9.636067390441895	 1.1710705757141113	 25.739953994750977
S	 7.10050630569458	 1.1697998046875	 16.06315040588379
S	 10.505378723144531	 4.352832794189453	 20.714258193969727
S	 10.489423751831055	 6.555083274841309	 23.89586639404297
S	 10.306292533874512	 0.18506412208080292	 14.47154712677002
S	 7.12407922744751	 3.411130428314209	 19.186786651611328
S	 8.38222599029541	 4.01214599609375	 25.685827255249023
S	 6.011799335479736	 4.925963401794434	 15.95608901977539
S	 11.631750106811523	 0.8568134903907776	 20.87763023376465
S	 7.211268901824951	 5.495471477508545	 22.30438804626465
S	 6.221431255340576	 1.4451563358306885	 27.313688278198242
S	 10.439538955688477	 2.3215763568878174	 17.547815322875977
S	 11.680453300476074	 2.834451675415039	 24.035581588745117
S	 9.296565055847168	 3.7361338138580322	 14.335352897644043
S	 6.114666938781738	 6.962488174438477	 19.04564094543457
S	 5.117537975311279	 5.058376312255859	 27.204071044921875
S	 9.361079216003418	 5.966053009033203	 17.41157341003418
S	 8.328550338745117	 1.863729476928711	 22.453927993774414
S	 7.285851955413818	 7.5404157638549805	 25.475574493408203
S	 4.905423641204834	 8.446615219116211	 15.773303985595703
S	 8.330472946166992	 11.65420150756836	 20.403047561645508
S	 8.343416213989258	 13.884557723999023	 23.535423278808594
S	 8.11120891571045	 7.461880683898926	 14.18170166015625
S	 4.928996562957764	 10.687947273254395	 18.896940231323242
S	 6.25481653213501	 11.359625816345215	 25.29959487915039
S	 3.8167154788970947	 12.202779769897461	 15.666243553161621
S	 9.415092468261719	 8.107239723205566	 20.60909652709961
S	 5.06292200088501	 12.824615478515625	 21.96539306640625
S	 4.076120376586914	 8.773682594299316	 26.965463638305664
S	 8.244455337524414	 9.598392486572266	 17.257970809936523
S	 9.518375396728516	 10.144378662109375	 23.70249366760254
S	 7.101481914520264	 11.01294994354248	 14.045506477355957
S	 3.9195849895477295	 14.239304542541504	 18.75579071044922
S	 2.9855222702026367	 12.404260635375977	 26.84599494934082
S	 7.165996074676514	 13.24286937713623	 17.121726989746094
S	 6.179548740386963	 9.19227409362793	 22.11897850036621
C	 9.735862731933594	 5.118661403656006	 27.70381736755371
C	 9.971366882324219	 3.6272997856140137	 27.653165817260742
H	 9.020606994628906	 5.314433574676514	 28.822240829467773
H	 9.381081581115723	 2.7776670455932617	 28.774856567382812
O	 10.128621101379395	 5.763011455535889	 27.022563934326172